Circuit: * C:\_dev\_crysynth\spice-sim\input_buffer.asc

Direct Newton iteration for .op point succeeded.
.step r=1000
.step r=11000
.step r=21000
.step r=31000
.step r=41000
.step r=51000
.step r=61000
.step r=71000
.step r=81000
.step r=91000
.step r=100000

Date: Tue Sep 27 16:30:58 2022
Total elapsed time: 0.143 seconds.

tnom = 27
temp = 27
method = trap
totiter = 3
traniter = 0
tranpoints = 0
accept = 0
rejected = 0
matrix size = 9
fillins = 2
solver = Normal
Matrix Compiler1:      31 opcodes
Matrix Compiler2: 695 bytes object code size
