Circuit: * C:\_dev\_crysynth\spice-sim\parametric_eq.asc

Direct Newton iteration for .op point succeeded.
.step r=1000
.step r=11000
.step r=21000
.step r=31000
.step r=41000
.step r=51000
.step r=61000
.step r=71000
.step r=81000
.step r=91000
.step r=100000

Date: Thu Sep 29 09:28:03 2022
Total elapsed time: 0.228 seconds.

tnom = 27
temp = 27
method = trap
totiter = 3
traniter = 0
tranpoints = 0
accept = 0
rejected = 0
matrix size = 12
fillins = 13
solver = Normal
Matrix Compiler1:     111 opcodes
Matrix Compiler2: 1.32 KB object code size
