Circuit: * C:\_dev\_crysynth\spice-sim\wien_bridge.asc

Direct Newton iteration for .op point succeeded.
.step r=1000
.step r=2000
.step r=3000
.step r=4000
.step r=5000
.step r=6000
.step r=7000
.step r=8000
.step r=9000
.step r=10000
.step r=11000
.step r=12000
.step r=13000
.step r=14000
.step r=15000
.step r=16000
.step r=17000
.step r=18000
.step r=19000
.step r=20000
.step r=21000
.step r=22000
.step r=23000
.step r=24000
.step r=25000
.step r=26000
.step r=27000
.step r=28000
.step r=29000
.step r=30000
.step r=31000
.step r=32000
.step r=33000
.step r=34000
.step r=35000
.step r=36000
.step r=37000
.step r=38000
.step r=39000
.step r=40000
.step r=41000
.step r=42000
.step r=43000
.step r=44000
.step r=45000
.step r=46000
.step r=47000
.step r=48000
.step r=49000
.step r=50000
.step r=51000
.step r=52000
.step r=53000
.step r=54000
.step r=55000
.step r=56000
.step r=57000
.step r=58000
.step r=59000
.step r=60000
.step r=61000
.step r=62000
.step r=63000
.step r=64000
.step r=65000
.step r=66000
.step r=67000
.step r=68000
.step r=69000
.step r=70000
.step r=71000
.step r=72000
.step r=73000
.step r=74000
.step r=75000
.step r=76000
.step r=77000
.step r=78000
.step r=79000
.step r=80000
.step r=81000
.step r=82000
.step r=83000
.step r=84000
.step r=85000
.step r=86000
.step r=87000
.step r=88000
.step r=89000
.step r=90000
.step r=91000
.step r=92000
.step r=93000
.step r=94000
.step r=95000
.step r=96000
.step r=97000
.step r=98000
.step r=99000
.step r=100000

Date: Wed Sep 28 09:44:41 2022
Total elapsed time: 2.386 seconds.

tnom = 27
temp = 27
method = trap
totiter = 3
traniter = 0
tranpoints = 0
accept = 0
rejected = 0
matrix size = 9
fillins = 2
solver = Normal
Matrix Compiler1:      29 opcodes
Matrix Compiler2: 661 bytes object code size
